
  Chime   05211013323D

 21 21  0        0              1 V2000
    0.8640    0.1880   -0.0520 C   0  0  0  0  0  0  0  0  0  0  0  0
    1.6880    1.2800   -0.0520 C   0  0  0  0  0  0  0  0  0  0  0  0
    3.0560    1.1440   -0.0200 C   0  0  0  0  0  0  0  0  0  0  0  0
    3.6120   -0.1280    0.0160 C   0  0  0  0  0  0  0  0  0  0  0  0
    2.7560   -1.2120    0.0040 C   0  0  0  0  0  0  0  0  0  0  0  0
    1.4000   -1.0680   -0.0320 C   0  0  0  0  0  0  0  0  0  0  0  0
    3.8320    2.4440   -0.0120 C   0  0  0  0  0  0  0  0  0  0  0  0
    3.1920    3.5000   -0.0640 O   0  0  0  0  0  0  0  0  0  0  0  0
    5.2240    2.5400    0.0400 O   0  0  0  0  0  0  0  0  0  0  0  0
    5.0360   -0.2600    0.0680 O   0  0  0  0  0  0  0  0  0  0  0  0
    5.8560   -1.4160    0.2360 C   0  0  0  0  0  0  0  0  0  0  0  0
    5.5000   -2.5840    0.4360 O   0  0  0  0  0  0  0  0  0  0  0  0
    7.3000   -1.1520    0.2000 C   0  0  0  0  0  0  0  0  0  0  0  0
   -0.1280    0.3080   -0.0720 H   0  0  0  0  0  0  0  0  0  0  0  0
    1.2880    2.2000   -0.0720 H   0  0  0  0  0  0  0  0  0  0  0  0
    3.1440   -2.1320    0.0240 H   0  0  0  0  0  0  0  0  0  0  0  0
    0.8040   -1.8720   -0.0400 H   0  0  0  0  0  0  0  0  0  0  0  0
    5.4960    3.4600    0.0320 H   0  0  0  0  0  0  0  0  0  0  0  0
    7.8000   -2.0120    0.3240 H   0  0  0  0  0  0  0  0  0  0  0  0
    7.5440   -0.5200    0.9360 H   0  0  0  0  0  0  0  0  0  0  0  0
    7.5480   -0.7480   -0.6800 H   0  0  0  0  0  0  0  0  0  0  0  0
 21 13  1  0
 20 13  1  0
 19 13  1  0
 18  9  1  0
 17  6  1  0
 16  5  1  0
 15  2  1  0
 14  1  1  0
 13 11  1  0
 12 11  1  0
 11 10  1  0
 10  4  1  0
  9  7  1  0
  8  7  1  0
  7  3  1  0
  6  5  1  0
  6  1  1  0
  5  4  1  0
  4  3  1  0
  3  2  1  0
  2  1  1  0
M  END
