
  Chime   05211013363D

 60 90  0        0              1 V2000
    3.4480    0.6840    0.0000 C   0  0  0  0  0  0  0  0  0  0  0  0
    3.4480   -0.6840    0.0000 C   0  0  0  0  0  0  0  0  0  0  0  0
   -3.4480    0.6840    0.0000 C   0  0  0  0  0  0  0  0  0  0  0  0
   -3.4480   -0.6840    0.0000 C   0  0  0  0  0  0  0  0  0  0  0  0
    0.6840    0.0000    3.4480 C   0  0  0  0  0  0  0  0  0  0  0  0
   -0.6840    0.0000    3.4480 C   0  0  0  0  0  0  0  0  0  0  0  0
    0.6840    0.0000   -3.4480 C   0  0  0  0  0  0  0  0  0  0  0  0
   -0.6840    0.0000   -3.4480 C   0  0  0  0  0  0  0  0  0  0  0  0
    0.0000    3.4480    0.6840 C   0  0  0  0  0  0  0  0  0  0  0  0
    0.0000    3.4480   -0.6840 C   0  0  0  0  0  0  0  0  0  0  0  0
    0.0000   -3.4480    0.6840 C   0  0  0  0  0  0  0  0  0  0  0  0
    0.0000   -3.4480   -0.6840 C   0  0  0  0  0  0  0  0  0  0  0  0
    3.0040    1.4080    1.1720 C   0  0  0  0  0  0  0  0  0  0  0  0
    3.0040    1.4080   -1.1720 C   0  0  0  0  0  0  0  0  0  0  0  0
    3.0040   -1.4080    1.1720 C   0  0  0  0  0  0  0  0  0  0  0  0
    3.0040   -1.4080   -1.1720 C   0  0  0  0  0  0  0  0  0  0  0  0
   -3.0040    1.4080    1.1720 C   0  0  0  0  0  0  0  0  0  0  0  0
   -3.0040    1.4080   -1.1720 C   0  0  0  0  0  0  0  0  0  0  0  0
   -3.0040   -1.4080    1.1720 C   0  0  0  0  0  0  0  0  0  0  0  0
   -3.0040   -1.4080   -1.1720 C   0  0  0  0  0  0  0  0  0  0  0  0
    1.4080    1.1720    3.0040 C   0  0  0  0  0  0  0  0  0  0  0  0
    1.4080   -1.1720    3.0040 C   0  0  0  0  0  0  0  0  0  0  0  0
   -1.4080    1.1720    3.0040 C   0  0  0  0  0  0  0  0  0  0  0  0
   -1.4080   -1.1720    3.0040 C   0  0  0  0  0  0  0  0  0  0  0  0
    1.4080    1.1720   -3.0040 C   0  0  0  0  0  0  0  0  0  0  0  0
    1.4080   -1.1720   -3.0040 C   0  0  0  0  0  0  0  0  0  0  0  0
   -1.4080    1.1720   -3.0040 C   0  0  0  0  0  0  0  0  0  0  0  0
   -1.4080   -1.1720   -3.0040 C   0  0  0  0  0  0  0  0  0  0  0  0
    1.1720    3.0040    1.4080 C   0  0  0  0  0  0  0  0  0  0  0  0
   -1.1720    3.0040    1.4080 C   0  0  0  0  0  0  0  0  0  0  0  0
    1.1720    3.0040   -1.4080 C   0  0  0  0  0  0  0  0  0  0  0  0
   -1.1720    3.0040   -1.4080 C   0  0  0  0  0  0  0  0  0  0  0  0
    1.1720   -3.0040    1.4080 C   0  0  0  0  0  0  0  0  0  0  0  0
   -1.1720   -3.0040    1.4080 C   0  0  0  0  0  0  0  0  0  0  0  0
    1.1720   -3.0040   -1.4080 C   0  0  0  0  0  0  0  0  0  0  0  0
   -1.1720   -3.0040   -1.4080 C   0  0  0  0  0  0  0  0  0  0  0  0
    2.5800    0.7240    2.2800 C   0  0  0  0  0  0  0  0  0  0  0  0
    2.5800    0.7240   -2.2800 C   0  0  0  0  0  0  0  0  0  0  0  0
    2.5800   -0.7240    2.2800 C   0  0  0  0  0  0  0  0  0  0  0  0
    2.5800   -0.7240   -2.2800 C   0  0  0  0  0  0  0  0  0  0  0  0
   -2.5800    0.7240    2.2800 C   0  0  0  0  0  0  0  0  0  0  0  0
   -2.5800    0.7240   -2.2800 C   0  0  0  0  0  0  0  0  0  0  0  0
   -2.5800   -0.7240    2.2800 C   0  0  0  0  0  0  0  0  0  0  0  0
   -2.5800   -0.7240   -2.2800 C   0  0  0  0  0  0  0  0  0  0  0  0
    0.7240    2.2800    2.5800 C   0  0  0  0  0  0  0  0  0  0  0  0
    0.7240   -2.2800    2.5800 C   0  0  0  0  0  0  0  0  0  0  0  0
   -0.7240    2.2800    2.5800 C   0  0  0  0  0  0  0  0  0  0  0  0
   -0.7240   -2.2800    2.5800 C   0  0  0  0  0  0  0  0  0  0  0  0
    0.7240    2.2800   -2.5800 C   0  0  0  0  0  0  0  0  0  0  0  0
    0.7240   -2.2800   -2.5800 C   0  0  0  0  0  0  0  0  0  0  0  0
   -0.7240    2.2800   -2.5800 C   0  0  0  0  0  0  0  0  0  0  0  0
   -0.7240   -2.2800   -2.5800 C   0  0  0  0  0  0  0  0  0  0  0  0
    2.2800    2.5800    0.7240 C   0  0  0  0  0  0  0  0  0  0  0  0
   -2.2800    2.5800    0.7240 C   0  0  0  0  0  0  0  0  0  0  0  0
    2.2800    2.5800   -0.7240 C   0  0  0  0  0  0  0  0  0  0  0  0
   -2.2800    2.5800   -0.7240 C   0  0  0  0  0  0  0  0  0  0  0  0
    2.2800   -2.5800    0.7240 C   0  0  0  0  0  0  0  0  0  0  0  0
   -2.2800   -2.5800    0.7240 C   0  0  0  0  0  0  0  0  0  0  0  0
    2.2800   -2.5800   -0.7240 C   0  0  0  0  0  0  0  0  0  0  0  0
   -2.2800   -2.5800   -0.7240 C   0  0  0  0  0  0  0  0  0  0  0  0
 60 36  1  0
 60 58  1  0
 60 20  1  0
 59 16  1  0
 59 57  1  0
 59 35  1  0
 58 34  1  0
 58 19  1  0
 57 15  1  0
 57 33  1  0
 56 32  1  0
 56 54  1  0
 56 18  1  0
 55 14  1  0
 55 53  1  0
 55 31  1  0
 54 30  1  0
 54 17  1  0
 53 13  1  0
 53 29  1  0
 52 50  1  0
 52 36  1  0
 52 28  1  0
 51 49  1  0
 51 27  1  0
 51 32  1  0
 50 35  1  0
 50 26  1  0
 49 25  1  0
 49 31  1  0
 48 46  1  0
 48 34  1  0
 48 24  1  0
 47 45  1  0
 47 23  1  0
 47 30  1  0
 46 33  1  0
 46 22  1  0
 45 21  1  0
 45 29  1  0
 44 28  1  0
 44 42  1  0
 44 20  1  0
 43 24  1  0
 43 41  1  0
 43 19  1  0
 42 27  1  0
 42 18  1  0
 41 23  1  0
 41 17  1  0
 40 16  1  0
 40 38  1  0
 40 26  1  0
 39 15  1  0
 39 37  1  0
 39 22  1  0
 38 14  1  0
 38 25  1  0
 37 13  1  0
 37 21  1  0
 36 12  1  0
 35 12  1  0
 34 11  1  0
 33 11  1  0
 32 10  1  0
 31 10  1  0
 30  9  1  0
 29  9  1  0
 28  8  1  0
 27  8  1  0
 26  7  1  0
 25  7  1  0
 24  6  1  0
 23  6  1  0
 22  5  1  0
 21  5  1  0
 20  4  1  0
 19  4  1  0
 18  3  1  0
 17  3  1  0
 16  2  1  0
 15  2  1  0
 14  1  1  0
 13  1  1  0
 12 11  1  0
 10  9  1  0
  8  7  1  0
  6  5  1  0
  4  3  1  0
  2  1  1  0
M  END
